
**** 11/22/24 15:26:08 *** PSpice 24.1.0 (4 September 2024) *** ID# 0 ********

 ** Profile: "SCHEMATIC1-V_out_frecventa"  [ C:\Users\cosmi\OneDrive - Universitatea Politehnica Bucuresti\Desktop\P1_2024_432D_Condr


 ****     CIRCUIT DESCRIPTION


******************************************************************************




** Creating circuit file "V_out_frecventa.cir" 
** WARNING: THIS AUTOMATICALLY GENERATED FILE MAY BE OVERWRITTEN BY SUBSEQUENT SIMULATIONS

*Libraries: 
* Profile Libraries :
* Local Libraries :
.LIB "C:/Users/cosmi/OneDrive - Universitatea Politehnica Bucuresti/Desktop/P1_2024_432D_Condrea_Cosmin_GSD_N9_OrCAD/Schematics/lib"
+ "_modelepspice_anexa_1/modele_a1_lib/bc817-25.lib" 
.LIB "C:/Users/cosmi/OneDrive - Universitatea Politehnica Bucuresti/Desktop/P1_2024_432D_Condrea_Cosmin_GSD_N9_OrCAD/Schematics/lib"
+ "_modelepspice_anexa_1/modele_a1_lib/bc846b.lib" 
* From [PSPICE NETLIST] section of C:\Users\cosmi\AppData\Roaming\SPB_Data\cdssetup\OrCAD_PSpice\24.1.0\PSpice.ini file:
.lib "nom.lib" 

*Analysis directives: 
.TRAN  0 0.5ms 0 0.1us SKIPBP 
.OPTIONS ADVCONV
.PROBE64 V(alias(*)) I(alias(*)) W(alias(*)) D(alias(*)) NOISE(alias(*)) 
.INC "..\SCHEMATIC1.net" 



**** INCLUDING SCHEMATIC1.net ****
* source P1_2024_432D_CONDREA_COSMIN_GSD_N9_ORCAD
R_R1         N99479 VCC  1k TC=0,0 
X_P1         0 N50631 N21962 POT PARAMS: SET=1 VALUE=10k
Q_Q2         N28905 N01033 VSS QBC817-25 
Q_Q1         N00941 N00925 VSS QBC817-25 
V_VCC         VCC 0 9Vdc
V_VSS         0 VSS 9Vdc
Q_Q3         N29003 N49952 VSS QBC846B 
Q_Q4         N49304 N29003 VSS QBC846B 
R_R12         N29003 VCC  3.3k TC=0,0 
X_P2         N29145 N47329 0 POT PARAMS: SET=1 VALUE=100k
R_R6         N00925 N21962  8.200k TC=0,0 
R_R5         N01033 N21962  8.200k TC=0,0 
R_R23         N21962 N45816  3.3k TC=0,0 
R_R11         N28905 N49952  100k TC=0,0 
R_R24         N45816 0  1k TC=0,0 
C_C3         N00925 N28905  1n  TC=0,0 
C_C4         N00925 N28905  1n  TC=0,0 
C_C1         N00941 N01033  1n  TC=0,0 
C_C2         N00941 N01033  1n  TC=0,0 
R_RL1         N92755 N47329  6.8k TC=0,0 
R_R19         N29145 N63469  15k TC=0,0 
R_R20         N63469 0  10k TC=0,0 
X_D1         VCC N65723 LED PARAMS: IS=7.0822e-18 RS=2  BV=5 IBV=10e-6         
X_D2         0 N65438 LED PARAMS: IS=7.0822e-18 RS=2  BV=5 IBV=10e-6         
R_R25         N65723 0  680 TC=0,0 
R_R27         N65438 VSS  680 TC=0,0 
R_R26         N65723 0  680 TC=0,0 
R_R28         N65438 VSS  680 TC=0,0 
C_C5         N29003 N49304  47p  TC=0,0 
R_R17         N92191 N49304  10k TC=0,0 
R_R18         N29145 N92191  8.2k TC=0,0 
R_RL2         0 N92755  2.2k TC=0,0 
R_R22         N98672 N50631  330 TC=0,0 
R_R21         VCC N98672  330 TC=0,0 
R_R2         N99483 VCC  1k TC=0,0 
R_R4         N00941 N99483  1k TC=0,0 
R_R3         N00941 N99479  1k TC=0,0 
R_R9         N28905 N100051  1k TC=0,0 
R_R7         N100051 VCC  1k TC=0,0 
R_R10         N28905 N100055  1k TC=0,0 
R_R8         N100055 VCC  1k TC=0,0 
R_R13         N49304 VCC  3.9k TC=0,0 
R_R14         N49304 VCC  3.9k TC=0,0 
R_R15         N49304 VCC  3.9k TC=0,0 
R_R16         N49304 VCC  3.9k TC=0,0 

**** RESUMING V_out_frecventa.cir ****
.END

**** 11/22/24 15:26:08 *** PSpice 24.1.0 (4 September 2024) *** ID# 0 ********

 ** Profile: "SCHEMATIC1-V_out_frecventa"  [ C:\Users\cosmi\OneDrive - Universitatea Politehnica Bucuresti\Desktop\P1_2024_432D_Condr


 ****     Diode MODEL PARAMETERS


******************************************************************************




               X_D1.model201   X_D2.model201   
          IS    7.082200E-18    7.082200E-18 
           N    2               2            
          BV    5               5            
         IBV   10.000000E-06   10.000000E-06 
          RS    2               2            


**** 11/22/24 15:26:08 *** PSpice 24.1.0 (4 September 2024) *** ID# 0 ********

 ** Profile: "SCHEMATIC1-V_out_frecventa"  [ C:\Users\cosmi\OneDrive - Universitatea Politehnica Bucuresti\Desktop\P1_2024_432D_Condr


 ****     BJT MODEL PARAMETERS


******************************************************************************




               QBC817-25       QBC846B         
               NPN             NPN             
       LEVEL    1               1            
          IS   91.980000E-15   18.220000E-15 
          BF  338.8           324.4          
          NF    1.003            .9932       
         VAF  107.9            82            
         IKF     .4913           .109        
         ISE  446.800000E-18  289.400000E-18 
          NE    1.65            1.4          
          BR   29.48            8.29         
          NR    1.002            .9931       
         VAR   25              17.9          
         IKR     .193            .09         
         ISC    5.109000E-15    9.982000E-12 
          NC    1.071           1.763        
         ISS    0               0            
          RB    1              10            
         RBM    1               5            
         IRB    1.000000E+03    5.000000E-06 
          RE     .2126           .649        
          RC     .143            .7014       
         CJE   38.250000E-12   12.440000E-12 
         VJE     .7004           .7579       
         MJE     .364            .3656       
         CJC   12.700000E-12    3.347000E-12 
         VJC     .4431           .5463       
         MJC     .3983           .391        
        XCJC     .4555           .6193       
         CJS    0               0            
         VJS     .75             .75         
         MJS     .333            .333        
          FC     .905            .979        
          TF  522.900000E-12  490.800000E-12 
         XTF  219.7             9.51         
         VTF    3.502           2.927        
         ITF    7.257            .3131       
          TR   70.000000E-12   90.000000E-09 
          KF    0               0            
          AF    1               1            
          CN    2.42            2.42         
           D     .87             .87         



          JOB CONCLUDED

**** 11/22/24 15:26:08 *** PSpice 24.1.0 (4 September 2024) *** ID# 0 ********

 ** Profile: "SCHEMATIC1-V_out_frecventa"  [ C:\Users\cosmi\OneDrive - Universitatea Politehnica Bucuresti\Desktop\P1_2024_432D_Condr


 ****     JOB STATISTICS SUMMARY


******************************************************************************



  Total job time (using Solver 1)   =         .55
