
**** 11/22/24 15:59:09 *** PSpice 24.1.0 (4 September 2024) *** ID# 0 ********

 ** Profile: "SCHEMATIC1-variatia_temperaturii"  [ C:\Users\cosmi\OneDrive - Universitatea Politehnica Bucuresti\Desktop\P1_2024_432D


 ****     CIRCUIT DESCRIPTION


******************************************************************************




** Creating circuit file "variatia_temperaturii.cir" 
** WARNING: THIS AUTOMATICALLY GENERATED FILE MAY BE OVERWRITTEN BY SUBSEQUENT SIMULATIONS

*Libraries: 
* Profile Libraries :
* Local Libraries :
.LIB "C:/Users/cosmi/OneDrive - Universitatea Politehnica Bucuresti/Desktop/P1_2024_432D_Condrea_Cosmin_GSD_N9_OrCAD/Schematics/lib"
+ "_modelepspice_anexa_1/modele_a1_lib/bc817-25.lib" 
.LIB "C:/Users/cosmi/OneDrive - Universitatea Politehnica Bucuresti/Desktop/P1_2024_432D_Condrea_Cosmin_GSD_N9_OrCAD/Schematics/lib"
+ "_modelepspice_anexa_1/modele_a1_lib/bc846b.lib" 
* From [PSPICE NETLIST] section of C:\Users\cosmi\AppData\Roaming\SPB_Data\cdssetup\OrCAD_PSpice\24.1.0\PSpice.ini file:
.lib "nom.lib" 

*Analysis directives: 
.TRAN  0 0.5ms 0 0.1us SKIPBP 
.TEMP -20 25 100
.OPTIONS ADVCONV
.PROBE64 V(alias(*)) I(alias(*)) W(alias(*)) D(alias(*)) NOISE(alias(*)) 
.INC "..\SCHEMATIC1.net" 



**** INCLUDING SCHEMATIC1.net ****
* source P1_2024_432D_CONDREA_COSMIN_GSD_N9_ORCAD
R_R1         N99479 VCC  1k TC=0,0 
X_P1         0 N50631 N21962 POT PARAMS: SET=1 VALUE=10k
Q_Q2         N28905 N01033 VSS QBC817-25 
Q_Q1         N00941 N00925 VSS QBC817-25 
V_VCC         VCC 0 9Vdc
V_VSS         0 VSS 9Vdc
Q_Q3         N29003 N49952 VSS QBC846B 
Q_Q4         N49304 N29003 VSS QBC846B 
R_R12         N29003 VCC  3.3k TC=0,0 
X_P2         N29145 N47329 0 POT PARAMS: SET=1 VALUE=100k
R_R6         N00925 N21962  8.200k TC=0,0 
R_R5         N01033 N21962  8.200k TC=0,0 
R_R23         N21962 N45816  3.3k TC=0,0 
R_R11         N28905 N49952  100k TC=0,0 
R_R24         N45816 0  1k TC=0,0 
C_C3         N00925 N28905  1n  TC=0,0 
C_C4         N00925 N28905  1n  TC=0,0 
C_C1         N00941 N01033  1n  TC=0,0 
C_C2         N00941 N01033  1n  TC=0,0 
R_RL1         N92755 N47329  6.8k TC=0,0 
R_R19         N29145 N63469  15k TC=0,0 
R_R20         N63469 0  10k TC=0,0 
X_D1         VCC N65723 LED PARAMS: IS=7.0822e-18 RS=2  BV=5 IBV=10e-6         
X_D2         0 N65438 LED PARAMS: IS=7.0822e-18 RS=2  BV=5 IBV=10e-6         
R_R25         N65723 0  680 TC=0,0 
R_R27         N65438 VSS  680 TC=0,0 
R_R26         N65723 0  680 TC=0,0 
R_R28         N65438 VSS  680 TC=0,0 
C_C5         N29003 N49304  47p  TC=0,0 
R_R17         N92191 N49304  10k TC=0,0 
R_R18         N29145 N92191  8.2k TC=0,0 
R_RL2         0 N92755  2.2k TC=0,0 
R_R22         N98672 N50631  330 TC=0,0 
R_R21         VCC N98672  330 TC=0,0 
R_R2         N99483 VCC  1k TC=0,0 
R_R4         N00941 N99483  1k TC=0,0 
R_R3         N00941 N99479  1k TC=0,0 
R_R9         N28905 N100051  1k TC=0,0 
R_R7         N100051 VCC  1k TC=0,0 
R_R10         N28905 N100055  1k TC=0,0 
R_R8         N100055 VCC  1k TC=0,0 
R_R13         N49304 VCC  3.9k TC=0,0 
R_R14         N49304 VCC  3.9k TC=0,0 
R_R15         N49304 VCC  3.9k TC=0,0 
R_R16         N49304 VCC  3.9k TC=0,0 

**** RESUMING variatia_temperaturii.cir ****
.END

**** 11/22/24 15:59:09 *** PSpice 24.1.0 (4 September 2024) *** ID# 0 ********

 ** Profile: "SCHEMATIC1-variatia_temperaturii"  [ C:\Users\cosmi\OneDrive - Universitatea Politehnica Bucuresti\Desktop\P1_2024_432D


 ****     Diode MODEL PARAMETERS


******************************************************************************




               X_D1.model201   X_D2.model201   
          IS    7.082200E-18    7.082200E-18 
           N    2               2            
          BV    5               5            
         IBV   10.000000E-06   10.000000E-06 
          RS    2               2            


**** 11/22/24 15:59:09 *** PSpice 24.1.0 (4 September 2024) *** ID# 0 ********

 ** Profile: "SCHEMATIC1-variatia_temperaturii"  [ C:\Users\cosmi\OneDrive - Universitatea Politehnica Bucuresti\Desktop\P1_2024_432D


 ****     BJT MODEL PARAMETERS


******************************************************************************




               QBC817-25       QBC846B         
               NPN             NPN             
       LEVEL    1               1            
          IS   91.980000E-15   18.220000E-15 
          BF  338.8           324.4          
          NF    1.003            .9932       
         VAF  107.9            82            
         IKF     .4913           .109        
         ISE  446.800000E-18  289.400000E-18 
          NE    1.65            1.4          
          BR   29.48            8.29         
          NR    1.002            .9931       
         VAR   25              17.9          
         IKR     .193            .09         
         ISC    5.109000E-15    9.982000E-12 
          NC    1.071           1.763        
         ISS    0               0            
          RB    1              10            
         RBM    1               5            
         IRB    1.000000E+03    5.000000E-06 
          RE     .2126           .649        
          RC     .143            .7014       
         CJE   38.250000E-12   12.440000E-12 
         VJE     .7004           .7579       
         MJE     .364            .3656       
         CJC   12.700000E-12    3.347000E-12 
         VJC     .4431           .5463       
         MJC     .3983           .391        
        XCJC     .4555           .6193       
         CJS    0               0            
         VJS     .75             .75         
         MJS     .333            .333        
          FC     .905            .979        
          TF  522.900000E-12  490.800000E-12 
         XTF  219.7             9.51         
         VTF    3.502           2.927        
         ITF    7.257            .3131       
          TR   70.000000E-12   90.000000E-09 
          KF    0               0            
          AF    1               1            
          CN    2.42            2.42         
           D     .87             .87         


**** 11/22/24 15:59:09 *** PSpice 24.1.0 (4 September 2024) *** ID# 0 ********

 ** Profile: "SCHEMATIC1-variatia_temperaturii"  [ C:\Users\cosmi\OneDrive - Universitatea Politehnica Bucuresti\Desktop\P1_2024_432D


 ****     TEMPERATURE-ADJUSTED VALUES      TEMPERATURE =  -20.000 DEG C


******************************************************************************




 **** DIODE MODEL PARAMETERS

                X_D1.model201  X_D2.model201 

         IS        1.021E-19      1.021E-19  
         VJ        1.041E+00      1.041E+00  
        CJO        0.000E+00      0.000E+00  
         RS        2.000E+00      2.000E+00  
        IKF        0.000E+00      0.000E+00  
         BV        5.000E+00      5.000E+00  


 **** BJT MODEL PARAMETERS

                  QBC817-25       QBC846B    

         BF        3.388E+02      3.244E+02  
        ISE        2.621E-18      6.781E-19  
        VJE        7.883E-01      8.368E-01  
        CJE        3.624E-11      1.188E-11  
         RE        2.126E-01      6.490E-01  
         RB        1.000E+00      1.000E+01  
         BR        2.948E+01      8.290E+00  
        ISC        1.863E-18      8.139E-14  
        VJC        5.713E-01      6.584E-01  
        CJC        1.114E-11      3.054E-12  
         RC        1.430E-01      7.014E-01  
        RBM        1.000E+00      5.000E+00  
         IS        1.912E-17      3.787E-18  
        ISS        0.000E+00      0.000E+00  
        VJS        8.302E-01      8.302E-01  
        CJS        0.000E+00      0.000E+00  
      GAMMA        1.000E-11      1.000E-11  
        RCO        0.000E+00      0.000E+00  
         VO        1.000E+01      1.000E+01  


**** 11/22/24 15:59:09 *** PSpice 24.1.0 (4 September 2024) *** ID# 0 ********

 ** Profile: "SCHEMATIC1-variatia_temperaturii"  [ C:\Users\cosmi\OneDrive - Universitatea Politehnica Bucuresti\Desktop\P1_2024_432D


 ****     TEMPERATURE-ADJUSTED VALUES      TEMPERATURE =   25.000 DEG C


******************************************************************************




 **** DIODE MODEL PARAMETERS

                X_D1.model201  X_D2.model201 

         IS        6.072E-18      6.072E-18  
         VJ        1.002E+00      1.002E+00  
        CJO        0.000E+00      0.000E+00  
         RS        2.000E+00      2.000E+00  
        IKF        0.000E+00      0.000E+00  
         BV        5.000E+00      5.000E+00  


 **** BJT MODEL PARAMETERS

                  QBC817-25       QBC846B    

         BF        3.388E+02      3.244E+02  
        ISE        3.707E-16      2.323E-16  
        VJE        7.042E-01      7.613E-01  
        CJE        3.816E-11      1.242E-11  
         RE        2.126E-01      6.490E-01  
         RB        1.000E+00      1.000E+01  
         BR        2.948E+01      8.290E+00  
        ISC        3.832E-15      8.382E-12  
        VJC        4.486E-01      5.511E-01  
        CJC        1.263E-11      3.334E-12  
         RC        1.430E-01      7.014E-01  
        RBM        1.000E+00      5.000E+00  
         IS        6.760E-14      1.339E-14  
        ISS        0.000E+00      0.000E+00  
        VJS        7.535E-01      7.535E-01  
        CJS        0.000E+00      0.000E+00  
      GAMMA        1.000E-11      1.000E-11  
        RCO        0.000E+00      0.000E+00  
         VO        1.000E+01      1.000E+01  


**** 11/22/24 15:59:09 *** PSpice 24.1.0 (4 September 2024) *** ID# 0 ********

 ** Profile: "SCHEMATIC1-variatia_temperaturii"  [ C:\Users\cosmi\OneDrive - Universitatea Politehnica Bucuresti\Desktop\P1_2024_432D


 ****     TEMPERATURE-ADJUSTED VALUES      TEMPERATURE =  100.000 DEG C


******************************************************************************




 **** DIODE MODEL PARAMETERS

                X_D1.model201  X_D2.model201 

         IS        6.533E-16      6.533E-16  
         VJ        9.299E-01      9.299E-01  
        CJO        0.000E+00      0.000E+00  
         RS        2.000E+00      2.000E+00  
        IKF        0.000E+00      0.000E+00  
         BV        5.000E+00      5.000E+00  


 **** BJT MODEL PARAMETERS

                  QBC817-25       QBC846B    

         BF        3.388E+02      3.244E+02  
        ISE        1.076E-13      1.856E-13  
        VJE        5.575E-01      6.289E-01  
        CJE        4.150E-11      1.335E-11  
         RE        2.126E-01      6.490E-01  
         RB        1.000E+00      1.000E+01  
         BR        2.948E+01      8.290E+00  
        ISC        2.386E-11      1.692E-09  
        VJC        2.376E-01      3.659E-01  
        CJC        1.519E-11      3.817E-12  
         RC        1.430E-01      7.014E-01  
        RBM        1.000E+00      5.000E+00  
         IS        7.827E-10      1.550E-10  
        ISS        0.000E+00      0.000E+00  
        VJS        6.191E-01      6.191E-01  
        CJS        0.000E+00      0.000E+00  
      GAMMA        1.000E-11      1.000E-11  
        RCO        0.000E+00      0.000E+00  
         VO        1.000E+01      1.000E+01  



          JOB CONCLUDED

**** 11/22/24 15:59:09 *** PSpice 24.1.0 (4 September 2024) *** ID# 0 ********

 ** Profile: "SCHEMATIC1-variatia_temperaturii"  [ C:\Users\cosmi\OneDrive - Universitatea Politehnica Bucuresti\Desktop\P1_2024_432D


 ****     JOB STATISTICS SUMMARY


******************************************************************************



  Total job time (using Solver 1)   =        1.48
